LAMMPS (27 Jun 2024)
package omp 0
using multi-threaded neighbor list subroutines
# LAMMPS input script by Simon Gravelle
# For LAMMPS tutorials, see https://lammpstutorials.github.io
# Last tested using the 27Jun2024 LAMMPS version

variable Nstep equal 1000000
variable mu_K equal -3400
variable mu_kcal_mol equal -3400*0.0019872041
mu equal -6.75649394
variable tfac equal 5.0/3.0
variable Nattempt equal 100

units real
boundary p p p
atom_style full
pair_style lj/cut/coul/long 12
kspace_style ewald 1.0e-5
bond_style harmonic
angle_style harmonic
pair_modify mix geometric
special_bonds lj 0.0 0.0 0.0 coul 0.0 0.0 0.0 angle yes

read_data box.data
Reading data file ...
  orthogonal box = (-12.5 -12.5 -12.5) to (12.5 12.5 12.5)
  reading atom labelmap ...
  reading bond labelmap ...
  reading angle labelmap ...
  reading atoms ...
  621 atoms
  reading velocities ...
  621 velocities
  scanning bonds ...
  scanning angles ...
  orthogonal box = (-12.5 -12.5 -12.5) to (12.5 12.5 12.5)
  reading bonds ...
  414 bonds
  reading angles ...
  207 angles
Finding 1-2 1-3 1-4 neighbors ...
     2 = max # of 1-2 neighbors
     1 = max # of 1-3 neighbors
     1 = max # of 1-4 neighbors
     2 = max # of special neighbors
labelmap atom 1 O 2 H
labelmap bond 1 O-H
labelmap angle 1 H-O-H

group H2O type O H
621 atoms in group H2O
include parm.lmp
# LAMMPS parameter file for H2O SPCE water model
# For conversion from K to kcal / mol, multiply
# by Boltzmann = 0.0019872041 kcal / (mol * K)

mass O 15.9994 # O
mass H 1.00784 # H

pair_coeff O O 0.15535 3.166
pair_coeff H H 0.0 1.0

bond_coeff O-H 0.0 1.0 # rigid

angle_coeff H-O-H 0.0 109.47 # rigid
molecule h2Omol H2O.mol
Read molecule template h2Omol:
# LAMMPS molecule file for carbondioxide
  1 molecules
  0 fragments
  3 atoms with max type 2
  2 bonds with max type 1
  1 angles with max type 1
  0 dihedrals with max type 0
  0 impropers with max type 0

fix mynvt H2O rigid/nvt/small molecule temp 300 300 100 mol h2Omol
  207 rigid bodies with 621 atoms
thermo 1000

run 2000

CITE-CITE-CITE-CITE-CITE-CITE-CITE-CITE-CITE-CITE-CITE-CITE-CITE

Your simulation uses code contributions which should be cited:

- Type Label Framework: https://doi.org/10.1021/acs.jpcb.3c08419

@Article{Gissinger24,
 author = {Jacob R. Gissinger, Ilia Nikiforov, Yaser Afshar, Brendon Waters, Moon-ki Choi, Daniel S. Karls, Alexander Stukowski, Wonpil Im, Hendrik Heinz, Axel Kohlmeyer, and Ellad B. Tadmor},
 title = {Type Label Framework for Bonded Force Fields in LAMMPS},
 journal = {J. Phys. Chem. B},
 year =    2024,
 volume =  128,
 number =  13,
 pages =   {3282â€“-3297}
}

CITE-CITE-CITE-CITE-CITE-CITE-CITE-CITE-CITE-CITE-CITE-CITE-CITE

Ewald initialization ...
  G vector (1/distance) = 0.24047307
  estimated absolute RMS force accuracy = 0.0033953394
  estimated relative force accuracy = 1.0224964e-05
  KSpace vectors: actual max1d max3d = 462 6 1098
                  kxmax kymax kzmax  = 6 6 6
Generated 1 of 1 mixed pair_coeff terms from geometric mixing rule
Last active /omp style is kspace_style ewald/omp
Step          Temp          E_pair         E_mol          TotEng         Press
0   0             -105.98844      0             -105.98844     -731.02917
Loop time of 2.45917 on 8 procs for 2000 steps with 621 atoms

fix fgcmc H2O gcmc 100 100 0 0 65899 300 -6.75649394 0.1     mol h2Omol tfac_insert 1.66666666666667 full_energy rigid mynvt

variable oxygen atom "type==1"
group oxygen dynamic all var oxygen
dynamic group oxygen defined
variable nO equal count(oxygen)
fix myat1 all ave/time 100 1 100 v_nO file number_H2O.dat
variable density equal v_nO*(15.9994+2*1.008)/vol/6.022e23*(1e8)^3
fix myat2 all ave/time 100 1 100 v_density file density_H2O.dat
compute press all pressure thermo_temp
fix myat3 all ave/time 10 100 1000 c_press file pressure_H2O.dat
thermo_style custom step temp etotal v_nO

run 1000000
Ewald initialization ...
  G vector (1/distance) = 0.24047307
  estimated absolute RMS force accuracy = 0.0033953394
  estimated relative force accuracy = 1.0224964e-05
  KSpace vectors: actual max1d max3d = 462 6 1098
                  kxmax kymax kzmax  = 6 6 6
Generated 1 of 1 mixed pair_coeff terms from geometric mixing rule
Last active /omp style is kspace_style ewald/omp
0 atoms in group FixGCMC:gcmc_exclusion_group:fgcmc
0 atoms in group FixGCMC:rotation_gas_atoms:fgcmc
Step          Temp          TotEng          v_nO
2000   303.3987      -635.27824      207
Averages over the last 501 of 1001 rows, steps 502000 to 1002000:
Temp TotEng v_nO
300.282 -4770.21 550.956
Loop time of 19264.9 on 8 procs for 1000000 steps with 1662 atoms
