LAMMPS (27 Jun 2024)
package omp 0
using multi-threaded neighbor list subroutines
# LAMMPS input script by Simon Gravelle
# For LAMMPS tutorials, see https://lammpstutorials.github.io
# Last tested using the 27Jun2024 LAMMPS version

variable Nstep equal 2500000
variable mu_K equal -2800
variable mu_kcal_mol equal -2800*0.0019872041
mu equal -5.56417148
variable tfac equal 5.0/3.0
variable Nattempt equal 100

units real
boundary p p p
atom_style full
pair_style lj/cut/coul/long 12
kspace_style ewald 1.0e-5
bond_style harmonic
angle_style harmonic
pair_modify mix geometric
special_bonds lj 0.0 0.0 0.0 coul 0.0 0.0 0.0 angle yes

read_data box.data extra/bond/per/atom 2 extra/angle/per/atom 2 extra/special/per/atom 2
Reading data file ...
  orthogonal box = (0.03 -0.061998 -0.327001) to (40.149999 39.538 39.753001)
  reading atom labelmap ...
  reading bond labelmap ...
  reading angle labelmap ...
  reading atoms ...
  3471 atoms
  reading velocities ...
  3471 velocities
  scanning bonds ...
  scanning angles ...
  orthogonal box = (0.03 -0.061998 -0.327001) to (40.149999 39.538 39.753001)
  reading bonds ...
  10 bonds
  reading angles ...
  5 angles
Finding 1-2 1-3 1-4 neighbors ...
     2 = max # of 1-2 neighbors
     1 = max # of 1-3 neighbors
     1 = max # of 1-4 neighbors
     4 = max # of special neighbors
labelmap atom 1 O 2 Si 3 OC 4 CO
labelmap bond 1 CO-OC
labelmap angle 1 OC-CO-OC

group SiO type O Si
3456 atoms in group SiO
group CO2 type OC CO
15 atoms in group CO2
neigh_modify exclude group SiO SiO

include parm.lmp
# LAMMPS parameter file for rigid CO2 and rigid MFI
# For conversion from K to kcal / mol, multiply
# by Boltzmann = 0.0019872041 kcal / (mol * K)

mass O 15.9994
mass Si 28.0855
mass OC 15.9994
mass CO 12.0110

pair_coeff O O 0.25478 2.708
pair_coeff Si Si 0.03696 0.677
pair_coeff OC OC 0.164858 3.011
pair_coeff CO CO 0.05894 2.789

bond_coeff CO-OC 0.0 1.18 # rigid

angle_coeff OC-CO-OC 0.0 180.0 # rigid

set type O mol 1
Setting atom values ...
  2304 settings made for mol
set type Si mol 2
Setting atom values ...
  1152 settings made for mol
molecule CO2mol CO2.mol
Read molecule template CO2mol:
# LAMMPS molecule file for carbondioxide
  1 molecules
  0 fragments
  3 atoms with max type 4
  2 bonds with max type 1
  1 angles with max type 1
  0 dihedrals with max type 0
  0 impropers with max type 0

fix mynvt CO2 rigid/nvt/small molecule temp 300 300 100 mol CO2mol
  5 rigid bodies with 15 atoms
  1.18 = max distance from body owner to body atom
thermo 1000

run 2000

CITE-CITE-CITE-CITE-CITE-CITE-CITE-CITE-CITE-CITE-CITE-CITE-CITE

Your simulation uses code contributions which should be cited:

- Type Label Framework: https://doi.org/10.1021/acs.jpcb.3c08419

@Article{Gissinger24,
 author = {Jacob R. Gissinger, Ilia Nikiforov, Yaser Afshar, Brendon Waters, Moon-ki Choi, Daniel S. Karls, Alexander Stukowski, Wonpil Im, Hendrik Heinz, Axel Kohlmeyer, and Ellad B. Tadmor},
 title = {Type Label Framework for Bonded Force Fields in LAMMPS},
 journal = {J. Phys. Chem. B},
 year =    2024,
 volume =  128,
 number =  13,
 pages =   {3282â€“-3297}
}

CITE-CITE-CITE-CITE-CITE-CITE-CITE-CITE-CITE-CITE-CITE-CITE-CITE

Ewald initialization ...
  G vector (1/distance) = 0.24105396
  estimated absolute RMS force accuracy = 0.0041935194
  estimated relative force accuracy = 1.2628659e-05
  KSpace vectors: actual max1d max3d = 1555 9 3429
                  kxmax kymax kzmax  = 9 9 9
Generated 6 of 6 mixed pair_coeff terms from geometric mixing rule
Last active /omp style is kspace_style ewald/omp
Step          Temp          E_pair         E_mol          TotEng         Press
0   0             -49833.845      0             -49833.845     -163.62111
Loop time of 10.0172 on 8 procs for 2000 steps with 3471 atoms

fix fgcmc CO2 gcmc 100 100 0 0 25899 300 -5.56417148 0.1     mol CO2mol tfac_insert 1.66666666666667 full_energy rigid mynvt

variable carbon atom "type==4"
group carbon dynamic all var carbon
dynamic group carbon defined
variable nC equal count(carbon)
fix myat1 all ave/time 10 10 1000 v_nC file number_CO2.dat
variable density equal v_nC*(2*15.9994+12.011)/vol/6.022e23*(1e8)^3
fix myat2 all ave/time 10 10 1000 v_density file density_CO2.dat
compute press all pressure thermo_temp
fix myat3 all ave/time 10 100 1000 c_press file pressure_CO2.dat
thermo_style custom step temp etotal v_nC

run 2500000
Ewald initialization ...
  G vector (1/distance) = 0.24105396
  estimated absolute RMS force accuracy = 0.0041935194
  estimated relative force accuracy = 1.2628659e-05
  KSpace vectors: actual max1d max3d = 1555 9 3429
                  kxmax kymax kzmax  = 9 9 9
Generated 6 of 6 mixed pair_coeff terms from geometric mixing rule
Last active /omp style is kspace_style ewald/omp
0 atoms in group FixGCMC:gcmc_exclusion_group:fgcmc
0 atoms in group FixGCMC:rotation_gas_atoms:fgcmc
Step          Temp          TotEng          v_nC
2000   1.2542567     -49822.424      5
Averages over the last 1251 of 2501 rows, steps 1252000 to 2502000:
Temp TotEng v_nC
0.707344 -52085.1 318.237
Loop time of 72466.7 on 8 procs for 2500000 steps with 4419 atoms
