LAMMPS (27 Jun 2024)
package omp 0
using multi-threaded neighbor list subroutines
# LAMMPS input script by Simon Gravelle
# For LAMMPS tutorials, see https://lammpstutorials.github.io
# Last tested using the 27Jun2024 LAMMPS version

variable Nstep equal 20000
variable mu_K equal -4600
variable mu_kcal_mol equal -4600*0.0019872041
variable tfac equal 5.0/3.0
variable Nattempt equal 5

units real
boundary p p p
atom_style full
pair_style lj/cut/coul/long 12
kspace_style ewald 1.0e-5
bond_style harmonic
angle_style harmonic
pair_modify mix geometric
special_bonds lj 0.0 0.0 0.0 coul 0.0 0.0 0.0 angle yes

read_data H2O-0.data
Reading data file ...
  orthogonal box = (-40 -40 -40) to (40 40 40)
  reading atom labelmap ...
  reading bond labelmap ...
  reading angle labelmap ...
  reading atoms ...
  60 atoms
  reading velocities ...
  60 velocities
  scanning bonds ...
  scanning angles ...
  orthogonal box = (-40 -40 -40) to (40 40 40)
  reading bonds ...
  40 bonds
  reading angles ...
  20 angles
Finding 1-2 1-3 1-4 neighbors ...
     2 = max # of 1-2 neighbors
     1 = max # of 1-3 neighbors
     1 = max # of 1-4 neighbors
     2 = max # of special neighbors
labelmap atom 1 O 2 H
labelmap bond 1 O-H
labelmap angle 1 H-O-H

group H2O type O H
60 atoms in group H2O
include parm.lmp
# LAMMPS parameter file for H2O SPCE water model
# For conversion from K to kcal / mol, multiply
# by Boltzmann = 0.0019872041 kcal / (mol * K)

mass O 15.9994 # O
mass H 1.00784 # H

pair_coeff O O 0.15535 3.166
pair_coeff H H 0.0 1.0

bond_coeff O-H 0.0 1.0 # rigid

angle_coeff H-O-H 0.0 109.47 # rigid

molecule h2omol H2O.mol
Read molecule template h2omol:
# LAMMPS molecule file for carbondioxide
  1 molecules
  0 fragments
  3 atoms with max type 2
  2 bonds with max type 1
  1 angles with max type 1
  0 dihedrals with max type 0
  0 impropers with max type 0

fix mynvt H2O rigid/nvt/small molecule temp 300 300 100 mol h2omol
  20 rigid bodies with 60 atoms
thermo 1000

run 2000

CITE-CITE-CITE-CITE-CITE-CITE-CITE-CITE-CITE-CITE-CITE-CITE-CITE

Your simulation uses code contributions which should be cited:

- Type Label Framework: https://doi.org/10.1021/acs.jpcb.3c08419

@Article{Gissinger24,
 author = {Jacob R. Gissinger, Ilia Nikiforov, Yaser Afshar, Brendon Waters, Moon-ki Choi, Daniel S. Karls, Alexander Stukowski, Wonpil Im, Hendrik Heinz, Axel Kohlmeyer, and Ellad B. Tadmor},
 title = {Type Label Framework for Bonded Force Fields in LAMMPS},
 journal = {J. Phys. Chem. B},
 year =    2024,
 volume =  128,
 number =  13,
 pages =   {3282â€“-3297}
}

CITE-CITE-CITE-CITE-CITE-CITE-CITE-CITE-CITE-CITE-CITE-CITE-CITE

Ewald initialization ...
  G vector (1/distance) = 0.19389845
  estimated absolute RMS force accuracy = 0.0038688354
  estimated relative force accuracy = 1.1650883e-05
  KSpace vectors: actual max1d max3d = 3576 12 7812
                  kxmax kymax kzmax  = 12 12 12
Generated 1 of 1 mixed pair_coeff terms from geometric mixing rule
Last active /omp style is kspace_style ewald/omp
Step          Temp          E_pair         E_mol          TotEng         Press
0   0             -0.052908703    0             -0.052908703   -0.025087862
Loop time of 1.59962 on 8 procs for 2000 steps with 60 atoms

fix fgcmc H2O gcmc 100 5 0 0 65899 300 -9.14113886 0.1     mol h2omol tfac_insert 1.66666666666667 full_energy rigid mynvt

variable oxygen atom "type==1"
group oxygen dynamic all var oxygen
dynamic group oxygen defined
variable nO equal count(oxygen)
fix myat1 all ave/time 100 1 100 v_nO file number_O.dat
variable density equal v_nO*(15.9994+2*1.00784)/vol/6.022e23*(1e8)^3
fix myat2 all ave/time 100 1 100 v_density file density_H2O.dat
thermo_style custom step temp etotal v_nO

run 20000
Ewald initialization ...
  G vector (1/distance) = 0.19389845
  estimated absolute RMS force accuracy = 0.0038688354
  estimated relative force accuracy = 1.1650883e-05
  KSpace vectors: actual max1d max3d = 3576 12 7812
                  kxmax kymax kzmax  = 12 12 12
Generated 1 of 1 mixed pair_coeff terms from geometric mixing rule
Last active /omp style is kspace_style ewald/omp
0 atoms in group FixGCMC:gcmc_exclusion_group:fgcmc
0 atoms in group FixGCMC:rotation_gas_atoms:fgcmc
Step          Temp          TotEng          v_nO
2000   263.88749      30.682215      20
Averages over the last 11 of 21 rows, steps 12000 to 22000:
Temp TotEng v_nO
188.701 21.7872 8.63636
Loop time of 17.5422 on 8 procs for 20000 steps with 18 atoms

#write_data H2O-0.data
